*Heading
** Job name: Sierpinski-1 Model name: Model-1
** Generated by: Abaqus/CAE 2020
*Preprint, echo=NO, model=NO, history=NO, contact=NO
**
** PARTS
**
*Part, name=Part-1
*Node
      1,          27.,          27.,           2.
      2,          27.,           0.,           2.
      3,          27.,           0.,           0.
      4,          27.,          27.,           0.
      5,          23.,          26.,           2.
      6,          22.,          26.,           2.
      7,          22.,          26.,           0.
      8,          23.,          26.,           0.
      9,          22.,          25.,           2.
     10,          22.,          25.,           0.
     11,          23.,          25.,           2.
     12,          23.,          25.,           0.
     13,          20.,          26.,           2.
     14,          19.,          26.,           2.
     15,          19.,          26.,           0.
     16,          20.,          26.,           0.
     17,          19.,          25.,           2.
     18,          19.,          25.,           0.
     19,          20.,          25.,           2.
     20,          20.,          25.,           0.
** ... 26943 like lines cut
*Element, type=C3D10
    1,   830,  3045,  3046,  3047,  4133,  4132,  4131,  4135,  4134,  4136
    2,  3048,  3049,  3050,  3045,  4139,  4138,  4137,  4141,  4140,  4142
    3,  3051,  3048,  3049,  3050,  4144,  4139,  4143,  4145,  4137,  4138
    4,  3045,  3049,  3050,   832,  4140,  4138,  4142,  4147,  4146,  4148
    5,   529,  3052,  2818,  1254,  4151,  4150,  4149,  4153,  4152,  4154
    6,  3045,  3046,  3053,  2717,  4132,  4156,  4155,  4158,  4157,  4159
    7,  3045,  3049,  2818,  3052,  4140,  4161,  4160,  4163,  4162,  4150
    8,  3045,  2717,  3053,  2818,  4158,  4159,  4155,  4160,  4164,  4165
    9,  3054,  2166,  1569,  1570,  4168,  4167,  4166,  4170,  4169,  4171
   10,  3054,  3055,  1570,  2732,  4173,  4172,  4170,  4175,  4174,  4176
   11,  3054,  3056,  3055,  3057,  4178,  4177,  4173,  4180,  4179,  4181
   12,  3054,  3057,  3058,  3056,  4180,  4183,  4182,  4178,  4179,  4184
   13,    98,  3059,   766,   762,  4187,  4186,  4185,  4189,  4188,  4190
   14,  2854,  2732,  3054,  2832,  4192,  4175,  4191,  4194,  4193,  4195
   15,  3060,   699,  3061,  3062,  4198,  4197,  4196,  4200,  4199,  4201
   16,  2629,  3063,  2591,  2590,  4204,  4203,  4202,  4206,  4205,  4207
   17,  3060,  3064,  2376,  2243,  4210,  4209,  4208,  4212,  4211,  4213
   18,  3065,  3066,  2670,   845,  4216,  4215,  4214,  4218,  4217,  4219
   19,  3065,  3067,   846,  2269,  4222,  4221,  4220,  4224,  4223,  4225
   20,  3065,  3067,   845,   846,  4222,  4226,  4218,  4220,  4221,  4227
** ... 15423 like lines cut
*Nset, nset=Set-1, generate
     1,  26963,      1
*Elset, elset=Set-1, generate
     1,  15443,      1
** Section: Section-1
*Solid Section, elset=Set-1, material=Material-1
,
*End Part
**  
**
** ASSEMBLY
**
*Assembly, name=Assembly
**  
*Instance, name=Part-1-1, part=Part-1
*End Instance
**  
*Nset, nset=Set-1, instance=Part-1-1
     1,     4,   591,   592,   671,   672,  1661,  1662,  1663,  1664,  1665,  1666,  1667,  1668,  1669,  1670
  1671,  1672,  1673,  1674,  1675,  1676,  1677,  1678,  1679,  1680,  1681,  1682,  1683,  1684,  1685,  1686
  1687,  1688,  1689,  1690,  1691,  1692,  1693,  1694,  1695,  1696,  1697,  1698,  1699,  1700,  1701,  1702
  1703,  1704,  1705,  1706,  1707,  1708,  1709,  1710,  1711,  1712,  1713,  1714,  1715,  1716,  1717,  1718
  1719,  1720,  1721,  1722,  1723,  1724,  1725,  1726,  1727,  1728,  1729,  1730,  1731,  1732,  1733,  1734
  1735,  1736,  1737,  1738,  2554,  2555,  2556,  2557,  2558,  2559,  2560,  2561,  2562,  2563,  2564,  2565
  2566,  2567,  2568,  2569,  2570,  2571,  2572,  2573,  2574,  2575,  2576,  2577,  2578,  2579,  2580,  2581
  2582,  2583,  2584,  2585,  2586,  2587,  2588,  2589,  2590,  2591,  2592,  2593,  2594,  2595,  2596,  2597
  2598,  2599,  2600,  2601,  2602,  2603,  2604,  2605,  2606,  2607,  2608,  2609,  2610,  2611,  2612,  2613
  2614,  2615,  2616,  2617,  2618,  2619,  2620,  2621,  2622,  2623,  2624,  2625,  2626,  2627,  2628,  2629
  4202,  4206,  4207,  5749,  5751,  5752,  6072,  6074,  6076,  6171,  6173,  6175,  6176,  6406,  6408,  6410
  6687,  6689,  6691,  7084,  7086,  7088,  7101,  8728,  8736,  8738,  8739,  8740,  8762,  9840,  9919, 10355
 10362, 10370, 10593, 10594, 10705, 10708, 10860, 10862, 10864, 10984, 10985, 10986, 11034, 11035, 11208, 11654
 11655, 11698, 11794, 11795, 11796, 11827, 11839, 11874, 11885, 11919, 11920, 12232, 12238, 12444, 12459, 12546
 12553, 12560, 12562, 12563, 12564, 12790, 13101, 13104, 13105, 13450, 13451, 13452, 13455, 13658, 14031, 14032
 14176, 14179, 14359, 14361, 14362, 14365, 14372, 14377, 14381, 14382, 14464, 14467, 14469, 14471, 14495, 14549
 14725, 14727, 14728, 14730, 14768, 14911, 14915, 15111, 15223, 15236, 15237, 15238, 15240, 15527, 15705, 15714
 15717, 15762, 15765, 15776, 15777, 15977, 15978, 15980, 16014, 16135, 16137, 16139, 16144, 16240, 16241, 16244
 16291, 16293, 16302, 16304, 16305, 16308, 16344, 16346, 16347, 16405, 16408, 16656, 16717, 16774, 16779, 16950
 16952, 17021, 17032, 17242, 17244, 17424, 17426, 17427, 17428, 17434, 17435, 17437, 17519, 17548, 17653, 17817
** ... 15 like lines cut
*Elset, elset=Set-1, instance=Part-1-1
    16,   363,   435,   459,   516,   582,   679,  1106,  1608,  1692,  1727,  1962,  2179,  2183,  2464,  2657
  2765,  2772,  2796,  2805,  2896,  3081,  3082,  3307,  3390,  3454,  3493,  3518,  3523,  3549,  3833,  3872
  3959,  3974,  4026,  4029,  4123,  4227,  4243,  4288,  4312,  4374,  4863,  5025,  5027,  5034,  5040,  5044
  5071,  5124,  5209,  5213,  5218,  5301,  5321,  5384,  5386,  5410,  5903,  5912,  5913,  5915,  5920,  5926
  5928,  5947,  5968,  5971,  5974,  6012,  6036,  6066,  6089,  6120,  6124,  6140,  6147,  6157,  6681,  6703
  6718,  6787,  6825,  6870,  6884,  6900,  7023,  7029,  7030,  7031,  7175,  7204,  7222,  7573,  7609,  7809
  7811,  7812,  7820,  7947,  8016,  8025,  8034,  8039,  8156,  8360,  8462,  8809,  8816,  9678,  9712,  9729
 10028, 10174, 10443, 10928, 10991, 11060, 11072, 11395, 12151, 12722, 13057, 13060, 13379, 13555, 13557, 13562
 13565, 13566, 13571, 13585, 13591, 13598, 13605, 13614, 13618, 13621, 13624, 13625, 13634, 13636, 13637, 13643
 13646, 13648, 13653, 13658, 13661, 13677, 13685, 13690, 13697, 13702, 13706, 13712, 13713, 13721, 13725, 13726
 13729, 13736, 13737, 13741, 13744, 13750, 13783, 13784, 13792, 13794, 13804, 13809, 13822, 13855, 13859, 13860
 13861, 13863, 13866, 13870, 13871, 13880, 13886, 13894, 13904, 13906, 13907, 13909, 13915, 13923, 13925, 13928
 13933, 13936, 13946, 13948, 13951, 13959, 13966, 13973, 13978, 13987, 13996, 13998, 14002, 14014, 14025, 14029
 14031, 14036, 14039, 14043, 14048, 14051, 14055, 14062, 14105, 14110, 14227, 14308, 14341, 14357, 14403, 14527
 14976, 14983, 14996, 15038, 15039, 15041, 15045, 15112, 15150, 15443
*Nset, nset=Set-2, instance=Part-1-1
     2,     3,   589,   590,   631,   632,  1545,  1546,  1547,  1548,  1549,  1550,  1551,  1552,  1553,  1554
  1555,  1556,  1557,  1558,  1559,  1560,  1561,  1562,  1563,  1564,  1565,  1566,  1567,  1568,  1569,  1570
  1571,  1572,  1573,  1574,  1575,  1576,  1577,  1578,  1579,  1580,  1581,  1582,  1583,  1584,  1585,  1586
  1587,  1588,  1589,  1590,  1591,  1592,  1593,  1594,  1595,  1596,  1597,  1598,  1599,  1600,  1601,  1602
  1603,  1604,  1605,  1606,  1607,  1608,  1609,  1610,  1611,  1612,  1613,  1614,  1615,  1616,  1617,  1618
  1619,  1620,  1621,  1622,  2141,  2142,  2143,  2144,  2145,  2146,  2147,  2148,  2149,  2150,  2151,  2152
  2153,  2154,  2155,  2156,  2157,  2158,  2159,  2160,  2161,  2162,  2163,  2164,  2165,  2166,  2167,  2168
  2169,  2170,  2171,  2172,  2173,  2174,  2175,  2176,  2177,  2178,  2179,  2180,  2181,  2182,  2183,  2184
  2185,  2186,  2187,  2188,  2189,  2190,  2191,  2192,  2193,  2194,  2195,  2196,  2197,  2198,  2199,  2200
  2201,  2202,  2203,  2204,  2205,  2206,  2207,  2208,  2209,  2210,  2211,  2212,  2213,  2214,  2215,  2216
  4167,  4169,  4171,  5327,  5330,  5332,  6667,  7475,  7477,  7479,  7560,  7562,  7890,  7906,  9954,  9956
  9958,  9971,  9973, 10099, 10101, 10102, 10103, 10105, 10107, 10506, 10751, 10752, 10816, 10818, 10819, 11070
 11081, 11082, 11083, 11407, 11613, 11749, 11757, 12098, 12794, 12795, 12796, 12797, 12798, 12799, 12802, 13145
 13645, 13649, 13650, 13720, 13751, 13753, 13757, 13762, 13776, 13782, 13783, 13785, 13916, 13923, 13947, 13949
 13951, 13961, 13962, 13964, 13973, 14040, 14188, 14189, 14253, 14261, 14274, 14440, 14452, 14456, 14459, 14521
 14639, 14641, 14651, 14657, 14894, 14983, 14985, 14986, 14988, 15120, 15125, 15135, 15136, 15137, 15351, 15352
 15353, 15354, 15876, 15878, 15879, 15883, 15890, 15891, 15893, 15894, 15909, 15914, 15916, 15918, 15924, 15927
 15946, 15974, 16413, 16831, 16834, 16835, 16862, 16864, 16866, 16892, 16893, 16908, 16913, 16914, 16916, 17146
 17148, 17214, 17450, 17596, 17726, 17728, 17732, 18027, 18172, 18177, 18186, 18188, 18191, 18851, 18853, 18855
 19117, 19118, 19119, 19180, 19355, 19357, 19359, 19372, 19443, 19444, 19492, 19496, 19497, 19769, 19770, 19803
** ... 15 like lines cut
*Elset, elset=Set-2, instance=Part-1-1
     9,   264,   772,   794,  1441,  1448,  1483,  1484,  1678,  1756,  2257,  2259,  2263,  2537,  2585,  2634
  2638,  2865,  2989,  3036,  3129,  3361,  3363,  3366,  3372,  3772,  3782,  3800,  3810,  3816,  3924,  4368
  4701,  4849,  4998,  5045,  5074,  5249,  5265,  5388,  5435,  5459,  5522,  5524,  5868,  5961,  6153,  6155
  6177,  6261,  6270,  6275,  6375,  6453,  6686,  6748,  6751,  6752,  6823,  6861,  6882,  6975,  7006,  7010
  7011,  7061,  7317,  7555,  7557,  7569,  7919,  7937,  8065,  8118,  8339,  8341,  8394,  8439,  8472,  8714
  8812,  8880,  8883,  8924,  8961,  8966,  9067,  9178,  9218,  9281,  9356,  9392,  9398,  9408,  9411,  9414
  9420,  9435,  9454,  9461,  9463,  9478,  9491,  9521,  9574,  9578,  9585,  9598,  9851,  9934, 10077, 10101
 10191, 10207, 10229, 10231, 10233, 10246, 10248, 10274, 10281, 10288, 10318, 10381, 10427, 10438, 10567, 10570
 10584, 10740, 10741, 10743, 10771, 10773, 10779, 10880, 10886, 10904, 10953, 10963, 10978, 10992, 10999, 11022
 11048, 11070, 11078, 11080, 11099, 11105, 11320, 11494, 11614, 11636, 11642, 11751, 11808, 11831, 11833, 11837
 11845, 12043, 12234, 12522, 12534, 12605, 12752, 12896, 12942, 12976, 12993, 13094, 13107, 13160, 13422, 13663
 13983, 14015, 14177, 14387, 14451, 14475, 14479, 14495, 14496, 14512, 14539, 14652, 14654, 14662, 14745, 14747
 14767, 14821, 14822, 14831, 15050, 15126, 15162, 15205, 15216, 15218, 15220, 15224, 15227, 15230, 15232, 15246
 15253, 15271, 15276, 15277, 15304, 15306, 15310, 15319, 15320, 15341, 15343, 15349, 15352, 15365, 15367, 15385
 15390, 15391, 15397, 15400, 15405, 15415, 15416, 15420, 15425, 15430
*End Assembly
** 
** MATERIALS
** 
*Material, name=Material-1
*Elastic
1., 0.45
** ----------------------------------------------------------------
** 
** STEP: Step-1
** 
*Step, name=Step-1, nlgeom=YES
*Static
0.1, 1., 1e-05, 1.
** 
** BOUNDARY CONDITIONS
** 
** Name: BC-1 Type: /
*Boundary
Set-1, 2, 2, 8.1
** Name: BC-2 Type: /
*Boundary
Set-2, 2, 2
** 
** OUTPUT REQUESTS
** 
*Restart, write, frequency=0
** 
** FIELD OUTPUT: F-Output-1
** 
*Output, field, variable=PRESELECT
** 
** HISTORY OUTPUT: H-Output-1
** 
*Output, history, variable=PRESELECT
*End Step
